/*--------------------------------*- C++ -*----------------------------------*\
  =========                 |
  \\      /  F ield         | OpenFOAM: The Open Source CFD Toolbox
   \\    /   O peration     | Website:  https://openfoam.org
    \\  /    A nd           | Version:  13
     \\/     M anipulation  |
\*---------------------------------------------------------------------------*/
FoamFile
{
    format      ascii;
    class       polyBoundaryMesh;
    location    "constant/meshes/0.0015/polyMesh";
    object      boundary;
}
// * * * * * * * * * * * * * * * * * * * * * * * * * * * * * * * * * * * * * //

9
(
    internal
    {
        type            internal;
        inGroups        List<word> 1(internal);
        nFaces          0;
        startFace       3034;
    }
    movingWall
    {
        type            wall;
        inGroups        List<word> 1(wall);
        nFaces          85;
        startFace       3034;
    }
    farFieldMoving
    {
        type            patch;
        nFaces          50;
        startFace       3119;
    }
    fixedWall
    {
        type            wall;
        inGroups        List<word> 1(wall);
        nFaces          35;
        startFace       3169;
    }
    axis
    {
        type            empty;
        inGroups        List<word> 1(empty);
        nFaces          0;
        startFace       3204;
    }
    left
    {
        type            patch;
        nFaces          30;
        startFace       3204;
    }
    farField
    {
        type            patch;
        nFaces          26;
        startFace       3234;
    }
    back
    {
        type            wedge;
        inGroups        List<word> 1(wedge);
        nFaces          1580;
        startFace       3260;
    }
    front
    {
        type            wedge;
        inGroups        List<word> 1(wedge);
        nFaces          1580;
        startFace       4840;
    }
)

// ************************************************************************* //
